11855
     RDKit          2D

 11 11  0  0  0  0  0  0  0  0999 V2000
    3.7320    1.5000    0.0000 Cl  0  0  0  0  0  0  0  0  0  0  0  0
    5.4641    0.5000    0.0000 Cl  0  0  0  0  0  0  0  0  0  0  0  0
    2.0000    0.5000    0.0000 Cl  0  0  0  0  0  0  0  0  0  0  0  0
    2.0000   -1.5000    0.0000 Cl  0  0  0  0  0  0  0  0  0  0  0  0
    5.4641   -1.5000    0.0000 Cl  0  0  0  0  0  0  0  0  0  0  0  0
    3.7320    0.5000    0.0000 C   0  0  0  0  0  0  0  0  0  0  0  0
    4.5981    0.0000    0.0000 C   0  0  0  0  0  0  0  0  0  0  0  0
    2.8660    0.0000    0.0000 C   0  0  0  0  0  0  0  0  0  0  0  0
    2.8660   -1.0000    0.0000 C   0  0  0  0  0  0  0  0  0  0  0  0
    4.5981   -1.0000    0.0000 C   0  0  0  0  0  0  0  0  0  0  0  0
    3.7320   -1.5000    0.0000 C   0  0  0  0  0  0  0  0  0  0  0  0
  1  6  1  0
  2  7  1  0
  3  8  1  0
  4  9  1  0
  5 10  1  0
  6  7  2  0
  6  8  1  0
  7 10  1  0
  8  9  2  0
  9 11  1  0
 10 11  2  0
M  END
>  <PUBCHEM_COMPOUND_CID>  (1) 
11855

>  <PUBCHEM_COMPOUND_CANONICALIZED>  (1) 
1

>  <PUBCHEM_CACTVS_COMPLEXITY>  (1) 
125

>  <PUBCHEM_CACTVS_HBOND_ACCEPTOR>  (1) 
0

>  <PUBCHEM_CACTVS_HBOND_DONOR>  (1) 
0

>  <PUBCHEM_CACTVS_ROTATABLE_BOND>  (1) 
0

>  <PUBCHEM_CACTVS_SUBSKEYS>  (1) 
AAADcQBgAAAHAAAAAAAAAAAAAAAAAAAAAAAwAAAAAAAAAAABAAAAGAIAAAAACAKAECAwAIAAAACAACBCAAACAAAgBQAAikAAAogIICKBEhCAIAAggAAIiAcAAAAAAAAQAACAAAQAACAAAQAACAAAAAAAAA==

>  <PUBCHEM_IUPAC_OPENEYE_NAME>  (1) 
1,2,3,4,5-pentachlorobenzene

>  <PUBCHEM_IUPAC_CAS_NAME>  (1) 
1,2,3,4,5-pentachlorobenzene

>  <PUBCHEM_IUPAC_NAME_MARKUP>  (1) 
1,2,3,4,5-pentachlorobenzene

>  <PUBCHEM_IUPAC_NAME>  (1) 
1,2,3,4,5-pentachlorobenzene

>  <PUBCHEM_IUPAC_SYSTEMATIC_NAME>  (1) 
1,2,3,4,5-pentakis(chloranyl)benzene

>  <PUBCHEM_IUPAC_TRADITIONAL_NAME>  (1) 
1,2,3,4,5-pentachlorobenzene

>  <PUBCHEM_IUPAC_INCHI>  (1) 
InChI=1S/C6HCl5/c7-2-1-3(8)5(10)6(11)4(2)9/h1H

>  <PUBCHEM_IUPAC_INCHIKEY>  (1) 
CEOCDNVZRAIOQZ-UHFFFAOYSA-N

>  <PUBCHEM_XLOGP3>  (1) 
5.2

>  <PUBCHEM_EXACT_MASS>  (1) 
249.849138

>  <PUBCHEM_MOLECULAR_FORMULA>  (1) 
C6HCl5

>  <PUBCHEM_MOLECULAR_WEIGHT>  (1) 
250.3

>  <PUBCHEM_OPENEYE_CAN_SMILES>  (1) 
C1=C(C(=C(C(=C1Cl)Cl)Cl)Cl)Cl

>  <PUBCHEM_OPENEYE_ISO_SMILES>  (1) 
C1=C(C(=C(C(=C1Cl)Cl)Cl)Cl)Cl

>  <PUBCHEM_CACTVS_TPSA>  (1) 
0

>  <PUBCHEM_MONOISOTOPIC_WEIGHT>  (1) 
247.852089

>  <PUBCHEM_TOTAL_CHARGE>  (1) 
0

>  <PUBCHEM_HEAVY_ATOM_COUNT>  (1) 
11

>  <PUBCHEM_ATOM_DEF_STEREO_COUNT>  (1) 
0

>  <PUBCHEM_ATOM_UDEF_STEREO_COUNT>  (1) 
0

>  <PUBCHEM_BOND_DEF_STEREO_COUNT>  (1) 
0

>  <PUBCHEM_BOND_UDEF_STEREO_COUNT>  (1) 
0

>  <PUBCHEM_ISOTOPIC_ATOM_COUNT>  (1) 
0

>  <PUBCHEM_COMPONENT_COUNT>  (1) 
1

>  <PUBCHEM_CACTVS_TAUTO_COUNT>  (1) 
-1

>  <PUBCHEM_COORDINATE_TYPE>  (1) 
1
5
255

>  <PUBCHEM_BONDANNOTATIONS>  (1) 
10  11  8
6  7  8
6  8  8
7  10  8
8  9  8
9  11  8

>  <PREDICTED SPECTRUM>  (1) 
25 25
32 40
35 70
36 41
37 111
38 97
39 59
47 207
48 93
49 127
50 26
51 1
60 161
61 149
62 88
63 11
68 41
70 25
71 102
72 241
73 294
74 231
75 204
76 69
79 89
82 71
83 142
84 211
86 149
92 4
94 85
95 171
96 273
97 91
98 235
101 26
103 45
106 154
107 287
108 517
109 300
110 275
111 206
112 154
113 38
114 23
117 61
118 121
119 194
120 139
121 38
128 14
129 27
130 219
131 22
132 94
133 221
134 74
141 45
142 304
143 363
144 294
145 399
146 260
147 242
148 129
156 36
157 6
169 4
171 114
173 2
178 432
179 191
180 591
181 232
182 449
183 86
184 216
186 83
194 0
203 56
205 24
206 57
213 416
214 260
215 495
216 312
217 320
218 207
219 148
220 114
222 49
223 3
248 788
249 212
250 999
251 253
252 868
253 196

$$$$
